[General]
network = Experiment1
**.runNumber = ${repetition}
**.nodes[*].application.*.scalar-recording = true
**.nodes[*].application.*.vector-recording = false
**.vector-recording = false
**.scalar-recording = false
**.param-recording = false
cmdenv-status-frequency=300s
config-recording=none
cmdenv-express-mode = true
cmdenv-autoflush = true
**.cmdenv-log-level = info

**.radioMedium.pathLoss.alpha = 2.25
**.nodes[*].application.variableUpdatePeriodDist = 5000

**.nodes[*].mobility.typename = "DefinedGridMobility"
**.nodes[0].application.variableID = 1
**.nodes[*].application.variableID = -2
**.nodes[*].application.onlyFinalLogging = true

[Original]
extends=General
repeat=336
sim-time-limit=15000s
**.numNodes = ${nodeCnt = 3..17}
**.nodes[*].mobility.numNodesX = ${nodeCnt}
**.nodes[*].mobility.numNodesY = 1
**.nodes[*].mobility.separation = ${separation = 280, 263, 273} #80%, 20%, 50% PER
**.nodes[*].beaconing.beaconPeriod = ${beaconPeriod = 100ms, 50ms}
**.nodes[*].application.variableRepetitions = ${numRepetitions = 1, 2, 3}
**.nodes[*].rtdb.maxNumSummaries = ${numSummaries = 0, 3}


[LabOneRun]
extends=General
repeat=592
sim-time-limit=10000s
resultdir-subdivision=true
**.numNodes = ${nodeCnt = 3..17}
**.nodes[*].mobility.numNodesX = ${nodeCnt}
**.nodes[*].mobility.numNodesY = 1
**.nodes[*].mobility.separation = ${separation = 280, 263, 273} #80%, 20%, 50% PER
**.nodes[*].beaconing.beaconPeriod = ${beaconPeriod = 100ms, 50ms}
**.nodes[*].application.variableRepetitions = ${numRepetitions = 1, 2, 3}
**.nodes[*].rtdb.maxNumSummaries = ${numSummaries = 0, 10}
