[General]
network = Experiment5
**.runNumber = ${repetition}
**.nodes[*].application.*.scalar-recording = true
**.nodes[*].application.*.vector-recording = false
**.vector-recording = false
**.scalar-recording = false
**.param-recording = false
cmdenv-status-frequency=300s
config-recording=none
cmdenv-express-mode = true
cmdenv-autoflush = true
**.cmdenv-log-level = info

**.radioMedium.pathLoss.alpha = 2.25

**.nodes[*].mobility.typename = "DefinedGridMobility"
**.nodes[*].application.onlyFinalLogging = false
**.nodes[*].mobility.constraintAreaMaxX = 10000m
**.nodes[*].mobility.constraintAreaMaxY = 10000m

**.nodes[*].application.variableID = -1
**.nodes[*].application.typename = "Experiment3Application"

**.nodes[*].beaconing.beaconPeriod = ${beaconPeriod = 50ms}
**.nodes[*].application.variableRepetitions = ${numRepetitions = 1}
**.nodes[*].rtdb.maxNumSummaries = ${numSummaries = 10}

**.nodes[*].*.maxBeaconSize = 300B

[SmallGrids-LabRun]
extends=General
**.nodes[*].application.variableUpdatePeriodDist = ${updatePeriod=exponential(200), exponential(300), exponential(400), exponential(500), exponential(750), exponential(1000), exponential(1500), exponential(2000)}
**.nodes[*].mobility.numNodesX = ${nodeCntX = 5..13 step 2}
**.nodes[*].mobility.separation = ${separation = 1120/($nodeCntX - 1)}
**.numNodes = ${nodeCnt = $nodeCntX ^ 2}
**.nodes[*].mobility.numNodesY = ${nodeCntX}
sim-time-limit=${runTime = 56s, 84s, 112s, 139s, 209s, 278s, 417s, 556s ! updatePeriod}
repeat=576
resultdir-subdivision=true


[SmallGrids-LabRunExtra]
extends=General
**.nodes[*].application.variableUpdatePeriodDist = ${updatePeriod=exponential(150), exponential(175), exponential(225), exponential(250), exponential(275), exponential(325), exponential(350), exponential(375), exponential(425), exponential(450), exponential(475)}
**.nodes[*].mobility.numNodesX = ${nodeCntX = 7..13 step 2}
**.nodes[*].mobility.separation = ${separation = 1120/($nodeCntX - 1)}
**.numNodes = ${nodeCnt = $nodeCntX ^ 2}
**.nodes[*].mobility.numNodesY = ${nodeCntX}
sim-time-limit=${runTime = 56s, 56s, 84s, 84s, 84s, 112s, 112s, 112s, 139s, 139s, 139s ! updatePeriod}
repeat=576
resultdir-subdivision=true
