[General]
network = GridNetworkExperiment
sim-time-limit=10000s
**.runNumber = ${repetition}
**.nodes[*].application.*.vector-recording = true
**.vector-recording = false
**.scalar-recording = false
cmdenv-status-frequency=300s
config-recording=none
cmdenv-express-mode = true
cmdenv-autoflush = true
**.cmdenv-log-level = info

**.radioMedium.pathLoss.alpha = 2.25

**.nodes[*].application.variableUpdatePeriodDist = 5000

**.nodes[*].mobility.typename = "DefinedGridMobility"
**.nodes[0].application.variableID = 1
**.nodes[*].application.variableID = -2


[SingleLine]
extends = General
**.nodes[*].rtdb.resultDest = "/local/spe107/Grid/single/"
**.nodes[*].mobility.numNodesX = 10
**.nodes[*].mobility.numNodesY = 1
**.numNodes = ${nodeCnt = 10}
**.nodes[*].mobility.separation = 200m

[DoubleLine]
extends = General
**.nodes[*].rtdb.resultDest = "/local/spe107/results/GridNetworkExperiment/double"
**.nodes[*].mobility.numNodesX = 10
**.nodes[*].mobility.numNodesY = 2
**.numNodes = ${nodeCnt = 20}
**.nodes[*].mobility.separation = 200m


[TripleLine]
extends = General
**.nodes[*].rtdb.resultDest = "/local/spe107/results/GridNetworkExperiment/double"
**.nodes[*].mobility.numNodesX = 10
**.nodes[*].mobility.numNodesY = 3
**.numNodes = ${nodeCnt = 30}
**.nodes[*].mobility.separation = 200m


[Complete]
extends = General
repeat=10
**.nodes[*].rtdb.resultDest = "/local/spe107/results/GridNetworkExperiment/complete"
**.numNodes = ${nodeCnt = 10, 20, 30}
**.nodes[*].mobility.numNodesX = 10
**.nodes[*].mobility.numNodesY = ${1, 2, 3 ! nodeCnt}
**.nodes[*].mobility.separation = 200m

[Complete2]
extends = General
repeat=10
**.numNodes = ${nodeCnt = 10, 20, 30}
**.nodes[*].mobility.numNodesX = 10
**.nodes[*].mobility.numNodesY = ${1, 2, 3 ! nodeCnt}
**.nodes[*].mobility.separation = 200m