[General]
network = Experiment2
resultdir-subdivision=true
sim-time-limit=15000s
**.runNumber = ${repetition}
**.nodes[*].application.*.scalar-recording = true
**.nodes[*].application.*.vector-recording = false
**.vector-recording = false
**.scalar-recording = false
**.param-recording = false
cmdenv-status-frequency=300s
config-recording=none
cmdenv-express-mode = true
cmdenv-autoflush = true
**.cmdenv-log-level = info

**.radioMedium.pathLoss.alpha = 2.25
**.nodes[*].application.variableUpdatePeriodDist = 5000

**.nodes[*].mobility.typename = "FixedDistanceFixedNode"
**.nodes[*].mobility.finalNodeX = ${endNodeX=1120}
**.nodes[0].application.variableID = 1
**.nodes[*].application.variableID = -2
**.nodes[*].application.onlyFinalLogging = true
**.nodes[*].application.typename = "RecordingApplication"

repeat=360
**.numNodes = ${nodeCnt = 5..19}
**.nodes[*].mobility.numNodesX = ${nodeCnt}
**.nodes[*].mobility.numNodesY = 1
**.nodes[*].mobility.separation = ${separation=$endNodeX/($nodeCnt - 1)}
**.nodes[*].beaconing.beaconPeriod = ${beaconPeriod = 100ms, 50ms}
**.nodes[*].application.variableRepetitions = ${numRepetitions = 1, 2, 3}
**.nodes[*].rtdb.maxNumSummaries = ${numSummaries = 10}