[General]
network = E2ELatencyTest
sim-time-limit=1000s
**.runNumber = ${repetition}
**.vector-recording = false
**.scalar-recording = false
result-dir="/local/spe107/sca"
cmdenv-status-frequency=300s
config-recording=none
cmdenv-express-mode = true
cmdenv-autoflush = true
**.cmdenv-log-level = info


[SlowUpdateRate]
extends = General
nodes[*].application.variableUpdatePeriodDist = poisson(5000)
nodes[*].**.maxPacketSize = 1KiB
nodes[*].**.beaconPeriod = 50ms
repeat = 1

[LowDensity]
extends = General
nodes[*].application.variableUpdatePeriodDist = poisson(5000)
nodes[*].**.maxPacketSize = 400B
repeat = 1
**.numNodes = 5


[InitialEnsemble]
extends = General
repeat = 6
nodes[*].application.variableUpdatePeriodDist = uniform(4800, 5200) 
**.maxBeaconSize = ${pktSize=200B, 400B}
**.numNodes = ${nodeCnt = 5, 20, 40}


[PacketLossRate]
network = E2ELatencyTest
**.runNumber = ${repetition}
**.nodes[*].wlan[0].radio.packetErrorRate:vector.vector-recording = true
**.nodes[*].wlan[0].radio.packetErrorRate.result-recording-modes = +vector
**.nodes[*].wlan[0].radio.minSnir.result-recording-modes = +vector

**.radioMedium.pathLoss.alpha = 2.25
**.nodes[*].mobility.constraintAreaMaxX = 20000m
**.nodes[*].mobility.constraintAreaMaxY = 20000m

repeat = 1
sim-time-limit=10000s
**.nodes[*].application.variableUpdatePeriodDist = 200

**.nodes[0].mobility.initialX = 0m
**.nodes[0].mobility.initialY = 0m
**.nodes[0].mobility.initialZ = 0m

**.nodes[*].mobility.typename = "LinearMobility"
**.nodes[1].mobility.initialX = 0m 
**.nodes[1].mobility.initialY = 0m
**.nodes[1].mobility.initialZ = 0m
**.nodes[1].mobility.speed = 1 mps
**.nodes[1].mobility.initialMovementHeading = 180deg

**.nodes[*].rtdb.maxBeaconSize = ${pktSize=200B}
**.nodes[*].rtdb.resultDest = "csv_results/bulkRes4"
**.nodes[*].beaconing.maxBeaconSize = ${pktSize}
**.numNodes = ${nodeCnt = 2}
**.nodes[*].beaconing.disableSRP = true
**.nodes[0].application.variableID = 1
**.nodes[1].application.variableID = -2


[ExperimentOne]
extends = General
repeat = 1
sim-time-limit=10000s
**.nodes[*].application.variableUpdatePeriodDist = 5000
**.nodes[*].mobility.typename = "StaticConcentricMobility"
**.nodes[*].mobility.numHosts = ${nodeCnt}
**.nodes[*].mobility.distance = ${125, 83.333, 62.5, 50,  45.54, 41.66 ! nodeCnt} m
**.nodes[*].rtdb.maxBeaconSize = ${pktSize=200B}
**.nodes[*].rtdb.resultDest = "csv_results/bulkRes3"
**.nodes[*].beaconing.maxBeaconSize = ${pktSize}
**.numNodes = ${nodeCnt = 40, 60, 80, 100, 120, 140}
**.nodes[*].beaconing.disableSRP = true
**.nodes[0].application.variableID = 1
**.nodes[*].application.variableID = -2


[ExperimentOneAlt]
extends = General
repeat = 100
sim-time-limit=1000s
**.nodes[*].application.variableUpdatePeriodDist = 5000
**.nodes[*].mobility.typename = "StaticGridMobility"
**.nodes[*].mobility.constraintAreaMaxX = 500m
**.nodes[*].mobility.constraintAreaMaxY = 500m
**.nodes[*].mobility.numHosts = ${nodeCnt}
**.nodes[*].rtdb.maxBeaconSize = ${pktSize=200B}
**.nodes[*].rtdb.resultDest = "/local/spe107/Experiment1Alt"
**.nodes[*].beaconing.maxBeaconSize = ${pktSize}
**.numNodes = ${nodeCnt = 25, 50, 100, 256}
**.nodes[*].beaconing.disableSRP = true
**.nodes[0].application.variableID = 1
**.nodes[*].application.variableID = -2

[ExperimentOneAltMultiHop]
extends = General
repeat = 10
sim-time-limit=1000s
**.radioMedium.pathLoss.alpha = 2.25
**.nodes[*].application.variableUpdatePeriodDist = 5000
**.nodes[0].mobility.typename = "StationaryMobility"
**.nodes[*].mobility.typename = "StaticGridMobility"
**.nodes[*].mobility.constraintAreaMaxX = 500m
**.nodes[*].mobility.constraintAreaMaxY = 500m
**.nodes[*].mobility.numHosts = ${nodeCnt}
**.nodes[*].rtdb.maxBeaconSize = ${pktSize=200B}
**.nodes[*].rtdb.resultDest = "/local/spe107/Experiment1AltMultiHop"
**.nodes[*].beaconing.maxBeaconSize = ${pktSize}
**.numNodes = ${nodeCnt = 25, 64, 100, 256}
**.nodes[*].beaconing.disableSRP = true
**.nodes[0].application.variableID = 1
**.nodes[0].mobility.initialX = 250 m
**.nodes[0].mobility.initialY = 250 m
**.nodes[0].mobility.initialZ = 0 m
**.nodes[*].application.variableID = -2

[ExperimentTwoDebug]
extends = General
repeat = 12
sim-time-limit=1000s
**.radioMedium.pathLoss.alpha = 2.25
**.nodes[*].application.variableUpdatePeriodDist = 5000
**.nodes[*].mobility.typename = "StationaryConnectedNetworkMobility"
**.nodes[*].mobility.maxSeparation = 266m
**.nodes[*].mobility.numHosts = ${nodeCnt}
**.nodes[*].rtdb.maxBeaconSize = ${pktSize=200B}
**.nodes[*].rtdb.resultDest = "/local/spe107/Experiment2"
**.nodes[*].beaconing.maxBeaconSize = ${pktSize}
**.numNodes = ${nodeCnt = 25, 50, 100, 256}
**.nodes[*].beaconing.disableSRP = true
**.nodes[0].application.variableID = 1
**.nodes[*].application.variableID = -2
**.nodes[*].mobility.constraintAreaMaxX = 2000m
**.nodes[*].mobility.constraintAreaMaxY = 2000m


[ExperimentTwo]
extends = General
repeat = 48
sim-time-limit=1000s
**.radioMedium.pathLoss.alpha = 2.25
**.nodes[*].application.variableUpdatePeriodDist = 5000
**.nodes[*].mobility.typename = "StationaryConnectedNetworkMobility"
**.nodes[*].mobility.maxSeparation = 266m
**.nodes[*].mobility.numHosts = ${nodeCnt}
**.nodes[*].rtdb.maxBeaconSize = ${pktSize=200B}
**.nodes[*].rtdb.resultDest = "/local/spe107/results/Experiment2"
**.nodes[*].beaconing.maxBeaconSize = ${pktSize}
**.numNodes = ${nodeCnt = 25, 50, 100, 256, 121, 169, 225, 64}
**.nodes[*].beaconing.disableSRP = true
**.nodes[0].application.variableID = 1
**.nodes[*].application.variableID = -2
**.nodes[*].mobility.constraintAreaMaxX = 2000m
**.nodes[*].mobility.constraintAreaMaxY = 2000m


[ExperimentThree]
extends = General
repeat = 5
sim-time-limit=1000s
**.nodes[*].application.variableUpdatePeriodDist = ${poisson(5000), poisson(2000), poisson(1000), poisson(500), poisson(250)}
**.radioMedium.pathLoss.alpha = 2.25
**.nodes[*].mobility.typename = "StationaryConnectedNetworkMobility"
**.nodes[*].mobility.maxSeparation = 266m
**.nodes[*].mobility.numHosts = ${nodeCnt}
**.nodes[*].rtdb.maxBeaconSize = ${pktSize=200B}
**.nodes[*].rtdb.resultDest = "experiment2"
**.nodes[*].beaconing.maxBeaconSize = ${pktSize}
**.numNodes = ${nodeCnt = 25, 50, 100, 256}
**.nodes[*].beaconing.disableSRP = true
**.nodes[0].application.variableID = 1
**.nodes[*].application.variableID = -2
**.nodes[*].mobility.constraintAreaMaxX = 2000m
**.nodes[*].mobility.constraintAreaMaxY = 2000m


