[General]
network = MovingNodesTest
sim-time-limit=100s
repeat=1
**.runNumber = ${repetition}
**.nodes[*].mobility.numHosts = 3